# Model parameters
# Continuous equation parameters
 &PARM01
 viscAh=100.,
 viscAr=1.E-5,
 no_slip_sides=.FALSE.,
 no_slip_bottom=.FALSE.,
 diffKhT=100.,
 diffKrT=1.E-5,
 diffKhS=100.,
 diffKrS=1.E-5,
 ivdc_kappa=1.,
 implicitDiffusion=.TRUE.,
 eosType='LINEAR',
 tAlpha=2.E-4,
 sBeta=7.4E-4,
 rhoNil=999.8,
 gravity=9.81,
 rigidLid=.FALSE.,
 implicitFreeSurface=.TRUE.,
 exactConserv=.TRUE.,
 saltStepping=.TRUE.,
 readBinaryPrec = 64,
 writeBinaryPrec = 64,
 tRef=16.05,16.04,16.03,16.02,16.0,15.99,15.98,15.96,15.94,15.91,
      15.89,15.84,15.79,15.73,15.64,15.55,15.4,15.25,15.0,14.75,14.4,14.05,13.68,
      13.29,12.95,12.61,12.3,11.99,11.67,11.33,10.99,10.67,10.36,10.06,
      9.81,9.6,9.42,9.26,9.11,9.0,8.88,8.77,8.66,8.54,8.43,8.31,8.18,
      8.03,7.86,7.68,7.49,7.3,7.11,6.92,6.73,6.55,6.37,6.19,
      6.01,5.84,5.66,5.48,5.3,5.12,4.96,4.8,4.64,4.49,
      4.34,4.19,4.04,3.88,3.73,3.57,3.4,3.23,3.07,2.91,2.75,
      2.61,2.47,2.32,2.18,2.06,2.0,1.96,1.92,1.88,1.83,1.78,
      1.73,1.67,1.63,1.59,1.54,1.5,1.46,1.43,1.39,1.49,
 sRef=33.52,33.52,33.52,33.52,33.52,33.52,33.52,33.52,33.52,33.52,33.52,
      33.52,33.53,33.53,33.53,33.53,33.54,33.54,33.54,33.55,33.55,33.56,33.56,33.57,
      33.58,33.6,33.61,33.63,33.64,33.67,33.69,33.71,33.74,33.77,33.81,
      33.84,33.88,33.91,33.95,33.98,34.01,34.04,34.07,34.11,34.14,34.17,
      34.2,34.22,34.23,34.24,34.25,34.26,34.28,34.29,34.31,34.32,34.33,
      34.35,34.36,34.37,34.38,34.39,34.4,34.41,34.42,34.43,34.44,34.45,
      34.46,34.47,34.48,34.49,34.5,34.51,34.52,34.53,34.54,34.56,
      34.57,34.58,34.59,34.61,34.62,34.63,34.64,34.65,34.66,34.67,34.68,
      34.68,34.68,34.68,34.68,34.69,34.69,34.7,34.7,34.71,34.71,34.69,
# globalFiles=.TRUE.,
 useSingleCpuIO=.TRUE.,
 &

# Elliptic solver parameters
 &PARM02
 cg2dTargetResidual=1.E-7,
 cg2dMaxIters=1000,
 &

# Time stepping parameters
 &PARM03
 startTime=432000.,
 endTime=1036800,
 pickupSuff='ckptB',
 nIter0=7200,
 deltaT=60.,
 chkptFreq=43200.,
 dumpFreq=432000.,
 monitorFreq=1200.,
 monitorSelect=2,
# periodicExternalForcing=.TRUE.,
# externForcingPeriod=1800.,
# externForcingCycle=216000,
 &

# Gridding parameters
 &PARM04
 usingSphericalPolarGrid=.TRUE.,
 xgOrigin=238.0,
 ygOrigin=27.0,
 delR= 2, 2, 2, 2, 2, 2.2, 2.4, 2.6, 2.8, 
       3.0, 3.2, 3.5, 3.8, 4.2, 4.5, 4.8, 5, 5, 5, 
       5, 5, 5, 5.5, 5.5, 5.5, 5.5, 5.5, 6, 6.5,
       7, 7.5, 8, 8.5, 9.2, 10, 10, 10, 10, 10, 10, 
       10, 11, 12, 13, 14, 15, 16, 17, 18, 20,
       22, 23, 25, 25, 25, 25, 25, 25, 25, 25, 
       27, 28, 30, 30, 32, 34, 36, 38, 40, 43, 
       46, 50, 55, 59, 65, 70, 75, 80, 85, 92, 
       100, 100, 100, 100, 100, 100, 105, 115, 125, 132,
       145, 160, 170, 180, 190, 200, 210, 230, 245, 269.8,
 delY = 612*0.0136,
 delX = 512*0.0156,
 &

 &PARM05
 bathyFile='/home/sio-kramosmusalem/MITgcm/SVB/input/domain5_512x612_SVB_flatBdy_bat.bin',
# meridWindFile='/home/sio-kramosmusalem/MITgcm/SVB/input/upwelling_merid_halfgauss2hr_512x612.bin',
# zonalWindFile='/home/sio-kramosmusalem/MITgcm/SVB/input/upwelling_zonal_halfgauss2hr_512x612.bin', 
# hydrogThetaFile='/home/sio-kramosmusalem/MITgcm/SVB/input/feb_Tref_100zlev_512x612.bin',
# hydrogSaltFile='/home/sio-kramosmusalem/MITgcm/SVB/input/feb_Sref_100zlev_512x612.bin',
 &

