# Packages (lines beginning "#" are comments)
 &PACKAGES
 useMNC=.FALSE.,
 useDiagnostics=.TRUE.,
 useOBCS=.TRUE.,
 &
